/*---------------------------------------------------------------------------*\
| =========                 |                                                 |
| \\      /  F ield         | OpenFOAM: The Open Source CFD Toolbox           |
|  \\    /   O peration     | Version:  1.4                                   |
|   \\  /    A nd           | Web:      http://www.openfoam.org               |
|    \\/     M anipulation  |                                                 |
\*---------------------------------------------------------------------------*/

// Field Dictionary

FoamFile
{
    version         2.0;
    format          ascii;
    class           volScalarField;
    object          f;
}

// * * * * * * * * * * * * * * * * * * * * * * * * * * * * * * * * * * * * * //


dimensions      [0 0 0 0 0 0 0];


//internalField	uniform 0;

internalField   #codeStream
    {
	codeInclude
	#{
	    #include "fvCFD.H"
	#};

	codeOptions
	#{
	    -I$(LIB_SRC)/finiteVolume/lnInclude \
	    -I$(LIB_SRC)/meshTools/lnInclude
	#};

	codeLibs
	#{
	    -lmeshTools \
	    -lfiniteVolume
	 #};

	code
	#{
	    const IOdictionary& d = static_cast<const IOdictionary&>(dict);
	    const fvMesh& mesh = refCast<const fvMesh>(d.db());

	    scalarField f(mesh.nCells(), 0.);
		scalar pi = constant::mathematical::pi;

	    forAll(f, i)
	    {
		const scalar x = mesh.C()[i][0];
		const scalar y = mesh.C()[i][1];
		const scalar lambda = 0.001;
		const scalar uMin = -1.0;
		const scalar uMax = 1.0;
		const scalar p = (1/(4*pi*pi))*sin(2*pi*x)*sin(2*pi*y);
		
		f[i] = 8*pi*pi*sin(2*pi*x)*sin(2*pi*y) - min(uMax, max(uMin,-p/lambda));
	    }

	    f.writeEntry("", os);
	#};

    };

boundaryField
{
/*
    leftWall        
    {
        //type            zeroGradient;
	type		fixedValue;
	value		uniform 0;
    }

    rightWall       
    {
        //type            zeroGradient;
	type		fixedValue;
	value		uniform 0; 
    }

    topWall       
    {  
        type            fixedValue;
        value           uniform 0; 
     }

    bottomWall
    {
	type		fixedValue;
	value		uniform 0;
    }
*/
    dirichletBoundary
    {
	type		fixedValue;
	value		uniform 0;
    }

    backAndFront           
    {
        type            empty;
    }
}
// ************************************************************************* //
