/*--------------------------------*- C++ -*----------------------------------*\
| =========                 |                                                 |
| \\      /  F ield         | OpenFOAM: The Open Source CFD Toolbox           |
|  \\    /   O peration     | Version:  v1806                                 |
|   \\  /    A nd           | Web:      www.OpenFOAM.com                      |
|    \\/     M anipulation  |                                                 |
\*---------------------------------------------------------------------------*/
FoamFile
{
    version     2.0;
    format      ascii;
    class       polyBoundaryMesh;
    location    "constant/polyMesh";
    object      boundary;
}
// * * * * * * * * * * * * * * * * * * * * * * * * * * * * * * * * * * * * * //


2
(
    dirichletBoundary
    {
        type            patch;
        nFaces          200;
        startFace       4900;
    }

    backAndFront
    {
        type            empty;
        inGroups        1 ( empty );
        nFaces          5000;
        startFace       5100;
        physicalType    empty;
    }

)


// ************************************************************************* //
